<?xml version='1.0' encoding='utf-8'?>
<routes xmlns:xsi="http://www.w3.org/2001/XMLSchema-instance" xsi:noNamespaceSchemaLocation="http://sumo.dlr.de/xsd/routes_file.xsd">
    <trip id="vehicle_1" depart="0.00" from="-213182392#3" to="727237322" />
    <trip id="vehicle_2" depart="5.00" from="-40388718#1" to="23543030" />
</routes>